/*--------------------------------*- C++ -*----------------------------------*\
| =========                 |                                                 |
| \\      /  F ield         | OpenFOAM: The Open Source CFD Toolbox           |
|  \\    /   O peration     | Version:  v2012                                 |
|   \\  /    A nd           | Website:  www.openfoam.com                      |
|    \\/     M anipulation  |                                                 |
\*---------------------------------------------------------------------------*/
FoamFile
{
    version     2.0;
    format      binary;
    class       polyBoundaryMesh;
    arch        "LSB;label=32;scalar=64";
    location    "constant/polyMesh";
    object      boundary;
}
// * * * * * * * * * * * * * * * * * * * * * * * * * * * * * * * * * * * * * //

9
(
    atmosphere
    {
        type            patch;
        nFaces          38;
        startFace       3158559;
    }
    outlet
    {
        type            patch;
        nFaces          0;
        startFace       3158597;
    }
    inlet
    {
        type            patch;
        nFaces          0;
        startFace       3158597;
    }
    bottom
    {
        type            symmetryPlane;
        inGroups        1(symmetryPlane);
        nFaces          38;
        startFace       3158597;
    }
    side
    {
        type            symmetryPlane;
        inGroups        1(symmetryPlane);
        nFaces          416;
        startFace       3158635;
    }
    midPlane
    {
        type            symmetryPlane;
        inGroups        1(symmetryPlane);
        nFaces          11068;
        startFace       3159051;
    }
    hull
    {
        type            wall;
        inGroups        1(wall);
        nFaces          98708;
        startFace       3170119;
    }
    procBoundary2to1
    {
        type            processor;
        inGroups        1(processor);
        nFaces          15998;
        startFace       3268827;
        matchTolerance  0.0001;
        transform       unknown;
        myProcNo        2;
        neighbProcNo    1;
    }
    procBoundary2to3
    {
        type            processor;
        inGroups        1(processor);
        nFaces          16246;
        startFace       3284825;
        matchTolerance  0.0001;
        transform       unknown;
        myProcNo        2;
        neighbProcNo    3;
    }
)

// ************************************************************************* //
