/*--------------------------------*- C++ -*----------------------------------*\
| =========                 |                                                 |
| \\      /  F ield         | OpenFOAM: The Open Source CFD Toolbox           |
|  \\    /   O peration     | Version:  v2012                                 |
|   \\  /    A nd           | Website:  www.openfoam.com                      |
|    \\/     M anipulation  |                                                 |
\*---------------------------------------------------------------------------*/
FoamFile
{
    version     2.0;
    format      ascii;
    class       volScalarField;
    location    "0";
    object      nuTilda;
}
// * * * * * * * * * * * * * * * * * * * * * * * * * * * * * * * * * * * * * //

dimensions      [0 0 -1 0 0 0 0];

internalField   uniform 0;

boundaryField
{

    inlet
    {
        type            adjointInletNuaTilda;
        value           uniform 0;
    }

    outlet
    {
        type            adjointOutletNuaTilda;
        value           uniform 0;
    }

    lowerWall
    {
        type            symmetry;
    }

    keel
    {
        type            fixedValue;
        value           uniform 0;
    }

    hull
    {
        type            fixedValue;
        value           uniform 0;
    }

    upperWall
    {
        type            fixedValue;
        value           uniform 0;
    }

    frontAndBack
    {
        type            symmetry;
    }
}


// ************************************************************************* //
