/*--------------------------------*- C++ -*----------------------------------*\
| =========                 |                                                 |
| \\      /  F ield         | OpenFOAM: The Open Source CFD Toolbox           |
|  \\    /   O peration     | Version:  v2012                                 |
|   \\  /    A nd           | Website:  www.openfoam.com                      |
|    \\/     M anipulation  |                                                 |
\*---------------------------------------------------------------------------*/
FoamFile
{
    version     2.0;
    format      binary;
    class       polyBoundaryMesh;
    arch        "LSB;label=32;scalar=64";
    location    "constant/polyMesh";
    object      boundary;
}
// * * * * * * * * * * * * * * * * * * * * * * * * * * * * * * * * * * * * * //

11
(
    atmosphere
    {
        type            patch;
        nFaces          2;
        startFace       1064995;
    }
    outlet
    {
        type            patch;
        nFaces          0;
        startFace       1064997;
    }
    inlet
    {
        type            patch;
        nFaces          0;
        startFace       1064997;
    }
    bottom
    {
        type            symmetryPlane;
        inGroups        1(symmetryPlane);
        nFaces          2;
        startFace       1064997;
    }
    side
    {
        type            symmetryPlane;
        inGroups        1(symmetryPlane);
        nFaces          0;
        startFace       1064999;
    }
    midPlane
    {
        type            symmetryPlane;
        inGroups        1(symmetryPlane);
        nFaces          8473;
        startFace       1064999;
    }
    hull
    {
        type            wall;
        inGroups        1(wall);
        nFaces          35128;
        startFace       1073472;
    }
    procBoundary4to0
    {
        type            processor;
        inGroups        1(processor);
        nFaces          231;
        startFace       1108600;
        matchTolerance  0.0001;
        transform       unknown;
        myProcNo        4;
        neighbProcNo    0;
    }
    procBoundary4to1
    {
        type            processor;
        inGroups        1(processor);
        nFaces          10010;
        startFace       1108831;
        matchTolerance  0.0001;
        transform       unknown;
        myProcNo        4;
        neighbProcNo    1;
    }
    procBoundary4to3
    {
        type            processor;
        inGroups        1(processor);
        nFaces          2241;
        startFace       1118841;
        matchTolerance  0.0001;
        transform       unknown;
        myProcNo        4;
        neighbProcNo    3;
    }
    procBoundary4to5
    {
        type            processor;
        inGroups        1(processor);
        nFaces          2847;
        startFace       1121082;
        matchTolerance  0.0001;
        transform       unknown;
        myProcNo        4;
        neighbProcNo    5;
    }
)

// ************************************************************************* //
