/*--------------------------------*- C++ -*----------------------------------*\
| =========                 |                                                 |
| \\      /  F ield         | OpenFOAM: The Open Source CFD Toolbox           |
|  \\    /   O peration     | Version:  v2012                                 |
|   \\  /    A nd           | Website:  www.openfoam.com                      |
|    \\/     M anipulation  |                                                 |
\*---------------------------------------------------------------------------*/
FoamFile
{
    version     2.0;
    format      binary;
    class       polyBoundaryMesh;
    arch        "LSB;label=32;scalar=64";
    location    "constant/polyMesh";
    object      boundary;
}
// * * * * * * * * * * * * * * * * * * * * * * * * * * * * * * * * * * * * * //

8
(
    atmosphere
    {
        type            patch;
        nFaces          532;
        startFace       1004024;
    }
    outlet
    {
        type            patch;
        nFaces          3382;
        startFace       1004556;
    }
    inlet
    {
        type            patch;
        nFaces          0;
        startFace       1007938;
    }
    bottom
    {
        type            symmetryPlane;
        inGroups        1(symmetryPlane);
        nFaces          532;
        startFace       1007938;
    }
    side
    {
        type            symmetryPlane;
        inGroups        1(symmetryPlane);
        nFaces          4984;
        startFace       1008470;
    }
    midPlane
    {
        type            symmetryPlane;
        inGroups        1(symmetryPlane);
        nFaces          12229;
        startFace       1013454;
    }
    hull
    {
        type            wall;
        inGroups        1(wall);
        nFaces          0;
        startFace       1025683;
    }
    procBoundary3to2
    {
        type            processor;
        inGroups        1(processor);
        nFaces          10686;
        startFace       1025683;
        matchTolerance  0.0001;
        transform       unknown;
        myProcNo        3;
        neighbProcNo    2;
    }
)

// ************************************************************************* //
