/*--------------------------------*- C++ -*----------------------------------*\
| =========                 |                                                 |
| \\      /  F ield         | OpenFOAM: The Open Source CFD Toolbox           |
|  \\    /   O peration     | Version:  v2012                                 |
|   \\  /    A nd           | Website:  www.openfoam.com                      |
|    \\/     M anipulation  |                                                 |
\*---------------------------------------------------------------------------*/
FoamFile
{
    version     2.0;
    format      binary;
    class       polyBoundaryMesh;
    arch        "LSB;label=32;scalar=64";
    location    "constant/polyMesh";
    object      boundary;
}
// * * * * * * * * * * * * * * * * * * * * * * * * * * * * * * * * * * * * * //

8
(
    atmosphere
    {
        type            patch;
        nFaces          532;
        startFace       2979145;
    }
    outlet
    {
        type            patch;
        nFaces          3952;
        startFace       2979677;
    }
    inlet
    {
        type            patch;
        nFaces          0;
        startFace       2983629;
    }
    bottom
    {
        type            symmetryPlane;
        inGroups        1(symmetryPlane);
        nFaces          532;
        startFace       2983629;
    }
    side
    {
        type            symmetryPlane;
        inGroups        1(symmetryPlane);
        nFaces          5824;
        startFace       2984161;
    }
    midPlane
    {
        type            symmetryPlane;
        inGroups        1(symmetryPlane);
        nFaces          22272;
        startFace       2989985;
    }
    hull
    {
        type            wall;
        inGroups        1(wall);
        nFaces          21807;
        startFace       3012257;
    }
    procBoundary3to2
    {
        type            processor;
        inGroups        1(processor);
        nFaces          16383;
        startFace       3034064;
        matchTolerance  0.0001;
        transform       unknown;
        myProcNo        3;
        neighbProcNo    2;
    }
)

// ************************************************************************* //
