/*--------------------------------*- C++ -*----------------------------------*\
| =========                 |                                                 |
| \\      /  F ield         | OpenFOAM: The Open Source CFD Toolbox           |
|  \\    /   O peration     | Version:  v2012                                 |
|   \\  /    A nd           | Website:  www.openfoam.com                      |
|    \\/     M anipulation  |                                                 |
\*---------------------------------------------------------------------------*/
FoamFile
{
    version     2.0;
    format      binary;
    class       polyBoundaryMesh;
    arch        "LSB;label=32;scalar=64";
    location    "constant/polyMesh";
    object      boundary;
}
// * * * * * * * * * * * * * * * * * * * * * * * * * * * * * * * * * * * * * //

8
(
    atmosphere
    {
        type            patch;
        nFaces          198;
        startFace       3165315;
    }
    outlet
    {
        type            patch;
        nFaces          0;
        startFace       3165513;
    }
    inlet
    {
        type            patch;
        nFaces          3952;
        startFace       3165513;
    }
    bottom
    {
        type            symmetryPlane;
        inGroups        1(symmetryPlane);
        nFaces          209;
        startFace       3169465;
    }
    side
    {
        type            symmetryPlane;
        inGroups        1(symmetryPlane);
        nFaces          2094;
        startFace       3169674;
    }
    midPlane
    {
        type            symmetryPlane;
        inGroups        1(symmetryPlane);
        nFaces          15784;
        startFace       3171768;
    }
    hull
    {
        type            wall;
        inGroups        1(wall);
        nFaces          55013;
        startFace       3187552;
    }
    procBoundary0to1
    {
        type            processor;
        inGroups        1(processor);
        nFaces          16848;
        startFace       3242565;
        matchTolerance  0.0001;
        transform       unknown;
        myProcNo        0;
        neighbProcNo    1;
    }
)

// ************************************************************************* //
