/*---------------------------------------------------------------------------*\
| =========                 |                                                 |
| \\      /  F ield         | OpenFOAM: The Open Source CFD Toolbox           |
|  \\    /   O peration     | Version:  1.3                                   |
|   \\  /    A nd           | Web:      http://www.openfoam.org               |
|    \\/     M anipulation  |                                                 |
\*---------------------------------------------------------------------------*/
FoamFile
{
    version     2.0;
    format      ascii;
    class       dictionary;
    location    "constant";
    object      waveDict;
}
// * * * * * * * * * * * * * * * * * * * * * * * * * * * * * * * * * * * * * //

#include "../data"

waveType        regular;

waveTheory      StokesV;

genAbs          1;

absDir          0.0;

nPaddles        1;

waveHeight      0.10;

wavePeriod      0.5;

waveDir         0.0;

wavePhase       1.57079633;

uCurrent        ($seaVelocity 0. 0.);
uWind		($airVelocity 0. 0.);
setWaterLevel	0.4;
// ************************************************************************* //
