/*--------------------------------*- C++ -*----------------------------------*\
| =========                 |                                                 |
| \\      /  F ield         | OpenFOAM: The Open Source CFD Toolbox           |
|  \\    /   O peration     | Version:  v2012                                 |
|   \\  /    A nd           | Website:  www.openfoam.com                      |
|    \\/     M anipulation  |                                                 |
\*---------------------------------------------------------------------------*/
FoamFile
{
    version     2.0;
    format      binary;
    class       polyBoundaryMesh;
    arch        "LSB;label=32;scalar=64";
    location    "constant/polyMesh";
    object      boundary;
}
// * * * * * * * * * * * * * * * * * * * * * * * * * * * * * * * * * * * * * //

9
(
    atmosphere
    {
        type            patch;
        nFaces          25;
        startFace       1960550;
    }
    outlet
    {
        type            patch;
        nFaces          0;
        startFace       1960575;
    }
    inlet
    {
        type            patch;
        nFaces          0;
        startFace       1960575;
    }
    bottom
    {
        type            symmetryPlane;
        inGroups        1(symmetryPlane);
        nFaces          19;
        startFace       1960575;
    }
    side
    {
        type            symmetryPlane;
        inGroups        1(symmetryPlane);
        nFaces          381;
        startFace       1960594;
    }
    midPlane
    {
        type            symmetryPlane;
        inGroups        1(symmetryPlane);
        nFaces          7436;
        startFace       1960975;
    }
    hull
    {
        type            wall;
        inGroups        1(wall);
        nFaces          51451;
        startFace       1968411;
    }
    procBoundary1to0
    {
        type            processor;
        inGroups        1(processor);
        nFaces          14684;
        startFace       2019862;
        matchTolerance  0.0001;
        transform       unknown;
        myProcNo        1;
        neighbProcNo    0;
    }
    procBoundary1to2
    {
        type            processor;
        inGroups        1(processor);
        nFaces          14726;
        startFace       2034546;
        matchTolerance  0.0001;
        transform       unknown;
        myProcNo        1;
        neighbProcNo    2;
    }
)

// ************************************************************************* //
