/*--------------------------------*- C++ -*----------------------------------*\
| =========                 |                                                 |
| \\      /  F ield         | OpenFOAM: The Open Source CFD Toolbox           |
|  \\    /   O peration     | Version:  v2012                                 |
|   \\  /    A nd           | Website:  www.openfoam.com                      |
|    \\/     M anipulation  |                                                 |
\*---------------------------------------------------------------------------*/
FoamFile
{
    version     2.0;
    format      binary;
    class       polyBoundaryMesh;
    arch        "LSB;label=32;scalar=64";
    location    "constant/polyMesh";
    object      boundary;
}
// * * * * * * * * * * * * * * * * * * * * * * * * * * * * * * * * * * * * * //

8
(
    atmosphere
    {
        type            patch;
        nFaces          190;
        startFace       1533400;
    }
    outlet
    {
        type            patch;
        nFaces          0;
        startFace       1533590;
    }
    inlet
    {
        type            patch;
        nFaces          3952;
        startFace       1533590;
    }
    bottom
    {
        type            symmetryPlane;
        inGroups        1(symmetryPlane);
        nFaces          190;
        startFace       1537542;
    }
    side
    {
        type            symmetryPlane;
        inGroups        1(symmetryPlane);
        nFaces          2080;
        startFace       1537732;
    }
    midPlane
    {
        type            symmetryPlane;
        inGroups        1(symmetryPlane);
        nFaces          10922;
        startFace       1539812;
    }
    hull
    {
        type            wall;
        inGroups        1(wall);
        nFaces          18359;
        startFace       1550734;
    }
    procBoundary0to1
    {
        type            processor;
        inGroups        1(processor);
        nFaces          13817;
        startFace       1569093;
        matchTolerance  0.0001;
        transform       unknown;
        myProcNo        0;
        neighbProcNo    1;
    }
)

// ************************************************************************* //
