/*--------------------------------*- C++ -*----------------------------------*\
| =========                 |                                                 |
| \\      /  F ield         | OpenFOAM: The Open Source CFD Toolbox           |
|  \\    /   O peration     | Version:  v2012                                 |
|   \\  /    A nd           | Website:  www.openfoam.com                      |
|    \\/     M anipulation  |                                                 |
\*---------------------------------------------------------------------------*/
FoamFile
{
    version     2.0;
    format      binary;
    class       polyBoundaryMesh;
    arch        "LSB;label=32;scalar=64";
    location    "constant/polyMesh";
    object      boundary;
}
// * * * * * * * * * * * * * * * * * * * * * * * * * * * * * * * * * * * * * //

9
(
    frontAndBack
    {
        type            patch;
        nFaces          100;
        startFace       1065110;
    }
    inlet
    {
        type            patch;
        nFaces          0;
        startFace       1065210;
    }
    outlet
    {
        type            patch;
        nFaces          0;
        startFace       1065210;
    }
    lowerWall
    {
        type            patch;
        nFaces          100;
        startFace       1065210;
    }
    upperWall
    {
        type            patch;
        nFaces          5675;
        startFace       1065310;
    }
    hull
    {
        type            wall;
        inGroups        1(wall);
        nFaces          991;
        startFace       1070985;
    }
    keel
    {
        type            wall;
        inGroups        1(wall);
        nFaces          0;
        startFace       1071976;
    }
    procBoundary1to0
    {
        type            processor;
        inGroups        1(processor);
        nFaces          6053;
        startFace       1071976;
        matchTolerance  0.0001;
        transform       unknown;
        myProcNo        1;
        neighbProcNo    0;
    }
    procBoundary1to2
    {
        type            processor;
        inGroups        1(processor);
        nFaces          6051;
        startFace       1078029;
        matchTolerance  0.0001;
        transform       unknown;
        myProcNo        1;
        neighbProcNo    2;
    }
)

// ************************************************************************* //
