/*--------------------------------*- C++ -*----------------------------------*\
| =========                 |                                                 |
| \\      /  F ield         | OpenFOAM: The Open Source CFD Toolbox           |
|  \\    /   O peration     | Version:  2012                                  |
|   \\  /    A nd           | Website:  www.openfoam.com                      |
|    \\/     M anipulation  |                                                 |
\*---------------------------------------------------------------------------*/
FoamFile
{
    version     2.0;
    format      binary;
    class       polyBoundaryMesh;
    arch        "LSB;label=32;scalar=64";
    location    "constant/polyMesh";
    object      boundary;
}
// * * * * * * * * * * * * * * * * * * * * * * * * * * * * * * * * * * * * * //

9
(
    atmosphere
    {
        type            patch;
        nFaces          38;
        startFace       567559;
    }
    outlet
    {
        type            patch;
        nFaces          0;
        startFace       567597;
    }
    inlet
    {
        type            patch;
        nFaces          0;
        startFace       567597;
    }
    bottom
    {
        type            symmetryPlane;
        inGroups        1(symmetryPlane);
        nFaces          38;
        startFace       567597;
    }
    side
    {
        type            symmetryPlane;
        inGroups        1(symmetryPlane);
        nFaces          336;
        startFace       567635;
    }
    midPlane
    {
        type            symmetryPlane;
        inGroups        1(symmetryPlane);
        nFaces          3235;
        startFace       567971;
    }
    hull
    {
        type            wall;
        inGroups        1(wall);
        nFaces          2854;
        startFace       571206;
    }
    procBoundary3to2
    {
        type            processor;
        inGroups        1(processor);
        nFaces          9708;
        startFace       574060;
        matchTolerance  0.0001;
        transform       unknown;
        myProcNo        3;
        neighbProcNo    2;
    }
    procBoundary3to4
    {
        type            processor;
        inGroups        1(processor);
        nFaces          9841;
        startFace       583768;
        matchTolerance  0.0001;
        transform       unknown;
        myProcNo        3;
        neighbProcNo    4;
    }
)

// ************************************************************************* //
