/*--------------------------------*- C++ -*----------------------------------*\
| =========                 |                                                 |
| \\      /  F ield         | OpenFOAM: The Open Source CFD Toolbox           |
|  \\    /   O peration     | Version:  v2012                                 |
|   \\  /    A nd           | Website:  www.openfoam.com                      |
|    \\/     M anipulation  |                                                 |
\*---------------------------------------------------------------------------*/
FoamFile
{
    version     2.0;
    format      binary;
    class       polyBoundaryMesh;
    arch        "LSB;label=32;scalar=64";
    location    "constant/polyMesh";
    object      boundary;
}
// * * * * * * * * * * * * * * * * * * * * * * * * * * * * * * * * * * * * * //

8
(
    atmosphere
    {
        type            patch;
        nFaces          528;
        startFace       858010;
    }
    outlet
    {
        type            patch;
        nFaces          3192;
        startFace       858538;
    }
    inlet
    {
        type            patch;
        nFaces          0;
        startFace       861730;
    }
    bottom
    {
        type            symmetryPlane;
        inGroups        1(symmetryPlane);
        nFaces          513;
        startFace       861730;
    }
    side
    {
        type            symmetryPlane;
        inGroups        1(symmetryPlane);
        nFaces          4697;
        startFace       862243;
    }
    midPlane
    {
        type            symmetryPlane;
        inGroups        1(symmetryPlane);
        nFaces          10964;
        startFace       866940;
    }
    hull
    {
        type            wall;
        inGroups        1(wall);
        nFaces          0;
        startFace       877904;
    }
    procBoundary3to2
    {
        type            processor;
        inGroups        1(processor);
        nFaces          8023;
        startFace       877904;
        matchTolerance  0.0001;
        transform       unknown;
        myProcNo        3;
        neighbProcNo    2;
    }
)

// ************************************************************************* //
