/*--------------------------------*- C++ -*----------------------------------*\
| =========                 |                                                 |
| \\      /  F ield         | OpenFOAM: The Open Source CFD Toolbox           |
|  \\    /   O peration     | Version:  v2012                                 |
|   \\  /    A nd           | Website:  www.openfoam.com                      |
|    \\/     M anipulation  |                                                 |
\*---------------------------------------------------------------------------*/
FoamFile
{
    version     2.0;
    format      binary;
    class       polyBoundaryMesh;
    arch        "LSB;label=32;scalar=64";
    location    "constant/polyMesh";
    object      boundary;
}
// * * * * * * * * * * * * * * * * * * * * * * * * * * * * * * * * * * * * * //

8
(
    atmosphere
    {
        type            patch;
        nFaces          190;
        startFace       1007281;
    }
    outlet
    {
        type            patch;
        nFaces          0;
        startFace       1007471;
    }
    inlet
    {
        type            patch;
        nFaces          3382;
        startFace       1007471;
    }
    bottom
    {
        type            symmetryPlane;
        inGroups        1(symmetryPlane);
        nFaces          190;
        startFace       1010853;
    }
    side
    {
        type            symmetryPlane;
        inGroups        1(symmetryPlane);
        nFaces          1780;
        startFace       1011043;
    }
    midPlane
    {
        type            symmetryPlane;
        inGroups        1(symmetryPlane);
        nFaces          7670;
        startFace       1012823;
    }
    hull
    {
        type            wall;
        inGroups        1(wall);
        nFaces          3300;
        startFace       1020493;
    }
    procBoundary0to1
    {
        type            processor;
        inGroups        1(processor);
        nFaces          10773;
        startFace       1023793;
        matchTolerance  0.0001;
        transform       unknown;
        myProcNo        0;
        neighbProcNo    1;
    }
)

// ************************************************************************* //
