/*--------------------------------*- C++ -*----------------------------------*\
| =========                 |                                                 |
| \\      /  F ield         | OpenFOAM: The Open Source CFD Toolbox           |
|  \\    /   O peration     | Version:  v2012                                 |
|   \\  /    A nd           | Website:  www.openfoam.com                      |
|    \\/     M anipulation  |                                                 |
\*---------------------------------------------------------------------------*/
FoamFile
{
    version     2.0;
    format      binary;
    class       polyBoundaryMesh;
    arch        "LSB;label=32;scalar=64";
    location    "constant/polyMesh";
    object      boundary;
}
// * * * * * * * * * * * * * * * * * * * * * * * * * * * * * * * * * * * * * //

10
(
    atmosphere
    {
        type            patch;
        nFaces          11;
        startFace       491458;
    }
    outlet
    {
        type            patch;
        nFaces          0;
        startFace       491469;
    }
    inlet
    {
        type            patch;
        nFaces          166;
        startFace       491469;
    }
    bottom
    {
        type            symmetryPlane;
        inGroups        1(symmetryPlane);
        nFaces          11;
        startFace       491635;
    }
    side
    {
        type            symmetryPlane;
        inGroups        1(symmetryPlane);
        nFaces          0;
        startFace       491646;
    }
    midPlane
    {
        type            symmetryPlane;
        inGroups        1(symmetryPlane);
        nFaces          8988;
        startFace       491646;
    }
    hull
    {
        type            wall;
        inGroups        1(wall);
        nFaces          14554;
        startFace       500634;
    }
    procBoundary3to0
    {
        type            processor;
        inGroups        1(processor);
        nFaces          7983;
        startFace       515188;
        matchTolerance  0.0001;
        transform       unknown;
        myProcNo        3;
        neighbProcNo    0;
    }
    procBoundary3to1
    {
        type            processor;
        inGroups        1(processor);
        nFaces          681;
        startFace       523171;
        matchTolerance  0.0001;
        transform       unknown;
        myProcNo        3;
        neighbProcNo    1;
    }
    procBoundary3to4
    {
        type            processor;
        inGroups        1(processor);
        nFaces          1856;
        startFace       523852;
        matchTolerance  0.0001;
        transform       unknown;
        myProcNo        3;
        neighbProcNo    4;
    }
)

// ************************************************************************* //
