/*--------------------------------*- C++ -*----------------------------------*\
| =========                 |                                                 |
| \\      /  F ield         | OpenFOAM: The Open Source CFD Toolbox           |
|  \\    /   O peration     | Version:  v2012                                 |
|   \\  /    A nd           | Website:  www.openfoam.com                      |
|    \\/     M anipulation  |                                                 |
\*---------------------------------------------------------------------------*/
FoamFile
{
    version     2.0;
    format      binary;
    class       polyBoundaryMesh;
    arch        "LSB;label=32;scalar=64";
    location    "constant/polyMesh";
    object      boundary;
}
// * * * * * * * * * * * * * * * * * * * * * * * * * * * * * * * * * * * * * //

8
(
    atmosphere
    {
        type            patch;
        nFaces          190;
        startFace       3003586;
    }
    outlet
    {
        type            patch;
        nFaces          0;
        startFace       3003776;
    }
    inlet
    {
        type            patch;
        nFaces          3952;
        startFace       3003776;
    }
    bottom
    {
        type            symmetryPlane;
        inGroups        1(symmetryPlane);
        nFaces          190;
        startFace       3007728;
    }
    side
    {
        type            symmetryPlane;
        inGroups        1(symmetryPlane);
        nFaces          2080;
        startFace       3007918;
    }
    midPlane
    {
        type            symmetryPlane;
        inGroups        1(symmetryPlane);
        nFaces          15227;
        startFace       3009998;
    }
    hull
    {
        type            wall;
        inGroups        1(wall);
        nFaces          49322;
        startFace       3025225;
    }
    procBoundary0to1
    {
        type            processor;
        inGroups        1(processor);
        nFaces          16392;
        startFace       3074547;
        matchTolerance  0.0001;
        transform       unknown;
        myProcNo        0;
        neighbProcNo    1;
    }
)

// ************************************************************************* //
