/*--------------------------------*- C++ -*----------------------------------*\
| =========                 |                                                 |
| \\      /  F ield         | OpenFOAM: The Open Source CFD Toolbox           |
|  \\    /   O peration     | Version:  v2012                                 |
|   \\  /    A nd           | Website:  www.openfoam.com                      |
|    \\/     M anipulation  |                                                 |
\*---------------------------------------------------------------------------*/
FoamFile
{
    version     2.0;
    format      binary;
    class       polyBoundaryMesh;
    arch        "LSB;label=32;scalar=64";
    location    "constant/polyMesh";
    object      boundary;
}
// * * * * * * * * * * * * * * * * * * * * * * * * * * * * * * * * * * * * * //

9
(
    frontAndBack
    {
        type            patch;
        nFaces          100;
        startFace       1065006;
    }
    inlet
    {
        type            patch;
        nFaces          0;
        startFace       1065106;
    }
    outlet
    {
        type            patch;
        nFaces          0;
        startFace       1065106;
    }
    lowerWall
    {
        type            patch;
        nFaces          100;
        startFace       1065106;
    }
    upperWall
    {
        type            patch;
        nFaces          5844;
        startFace       1065206;
    }
    hull
    {
        type            wall;
        inGroups        1(wall);
        nFaces          0;
        startFace       1071050;
    }
    keel
    {
        type            wall;
        inGroups        1(wall);
        nFaces          0;
        startFace       1071050;
    }
    procBoundary2to1
    {
        type            processor;
        inGroups        1(processor);
        nFaces          6051;
        startFace       1071050;
        matchTolerance  0.0001;
        transform       unknown;
        myProcNo        2;
        neighbProcNo    1;
    }
    procBoundary2to3
    {
        type            processor;
        inGroups        1(processor);
        nFaces          6199;
        startFace       1077101;
        matchTolerance  0.0001;
        transform       unknown;
        myProcNo        2;
        neighbProcNo    3;
    }
)

// ************************************************************************* //
