/*--------------------------------*- C++ -*----------------------------------*\
| =========                 |                                                 |
| \\      /  F ield         | OpenFOAM: The Open Source CFD Toolbox           |
|  \\    /   O peration     | Version:  v2012                                 |
|   \\  /    A nd           | Website:  www.openfoam.com                      |
|    \\/     M anipulation  |                                                 |
\*---------------------------------------------------------------------------*/
FoamFile
{
    version     2.0;
    format      binary;
    class       polyBoundaryMesh;
    arch        "LSB;label=32;scalar=64";
    location    "constant/polyMesh";
    object      boundary;
}
// * * * * * * * * * * * * * * * * * * * * * * * * * * * * * * * * * * * * * //

7
(
    atmosphere
    {
        type            patch;
        nFaces          798;
        startFace       3970477;
    }
    outlet
    {
        type            patch;
        nFaces          3192;
        startFace       3971275;
    }
    inlet
    {
        type            patch;
        nFaces          3192;
        startFace       3974467;
    }
    bottom
    {
        type            symmetryPlane;
        inGroups        1(symmetryPlane);
        nFaces          798;
        startFace       3977659;
    }
    side
    {
        type            symmetryPlane;
        inGroups        1(symmetryPlane);
        nFaces          7056;
        startFace       3978457;
    }
    midPlane
    {
        type            symmetryPlane;
        inGroups        1(symmetryPlane);
        nFaces          30927;
        startFace       3985513;
    }
    hull
    {
        type            wall;
        inGroups        1(wall);
        nFaces          31044;
        startFace       4016440;
    }
)

// ************************************************************************* //
