/*--------------------------------*- C++ -*----------------------------------*\
| =========                 |                                                 |
| \\      /  F ield         | OpenFOAM: The Open Source CFD Toolbox           |
|  \\    /   O peration     | Version:  2012                                  |
|   \\  /    A nd           | Website:  www.openfoam.com                      |
|    \\/     M anipulation  |                                                 |
\*---------------------------------------------------------------------------*/
FoamFile
{
    version     2.0;
    format      binary;
    class       polyBoundaryMesh;
    arch        "LSB;label=32;scalar=64";
    location    "constant/polyMesh";
    object      boundary;
}
// * * * * * * * * * * * * * * * * * * * * * * * * * * * * * * * * * * * * * //

7
(
    frontAndBack
    {
        type            symmetry;
        inGroups        1(symmetry);
        nFaces          800;
        startFace       4292043;
    }
    inlet
    {
        type            patch;
        nFaces          380;
        startFace       4292843;
    }
    outlet
    {
        type            patch;
        nFaces          200;
        startFace       4293223;
    }
    lowerWall
    {
        type            symmetry;
        inGroups        1(symmetry);
        nFaces          800;
        startFace       4293423;
    }
    upperWall
    {
        type            patch;
        nFaces          24481;
        startFace       4294223;
    }
    hull
    {
        type            wall;
        inGroups        1(wall);
        nFaces          5381;
        startFace       4318704;
    }
    keel
    {
        type            wall;
        inGroups        1(wall);
        nFaces          3435;
        startFace       4324085;
    }
)

// ************************************************************************* //
