/*--------------------------------*- C++ -*----------------------------------*\
| =========                 |                                                 |
| \\      /  F ield         | OpenFOAM: The Open Source CFD Toolbox           |
|  \\    /   O peration     | Version:  v2012                                 |
|   \\  /    A nd           | Website:  www.openfoam.com                      |
|    \\/     M anipulation  |                                                 |
\*---------------------------------------------------------------------------*/
FoamFile
{
    version     2.0;
    format      binary;
    class       polyBoundaryMesh;
    arch        "LSB;label=32;scalar=64";
    location    "constant/polyMesh";
    object      boundary;
}
// * * * * * * * * * * * * * * * * * * * * * * * * * * * * * * * * * * * * * //

8
(
    atmosphere
    {
        type            patch;
        nFaces          513;
        startFace       1941207;
    }
    outlet
    {
        type            patch;
        nFaces          3952;
        startFace       1941720;
    }
    inlet
    {
        type            patch;
        nFaces          0;
        startFace       1945672;
    }
    bottom
    {
        type            symmetryPlane;
        inGroups        1(symmetryPlane);
        nFaces          513;
        startFace       1945672;
    }
    side
    {
        type            symmetryPlane;
        inGroups        1(symmetryPlane);
        nFaces          5616;
        startFace       1946185;
    }
    midPlane
    {
        type            symmetryPlane;
        inGroups        1(symmetryPlane);
        nFaces          16962;
        startFace       1951801;
    }
    hull
    {
        type            wall;
        inGroups        1(wall);
        nFaces          0;
        startFace       1968763;
    }
    procBoundary3to2
    {
        type            processor;
        inGroups        1(processor);
        nFaces          13945;
        startFace       1968763;
        matchTolerance  0.0001;
        transform       unknown;
        myProcNo        3;
        neighbProcNo    2;
    }
)

// ************************************************************************* //
