/*--------------------------------*- C++ -*----------------------------------*\
| =========                 |                                                 |
| \\      /  F ield         | OpenFOAM: The Open Source CFD Toolbox           |
|  \\    /   O peration     | Version:  v2012                                 |
|   \\  /    A nd           | Website:  www.openfoam.com                      |
|    \\/     M anipulation  |                                                 |
\*---------------------------------------------------------------------------*/
FoamFile
{
    version     2.0;
    format      binary;
    class       polyBoundaryMesh;
    arch        "LSB;label=32;scalar=64";
    location    "constant/polyMesh";
    object      boundary;
}
// * * * * * * * * * * * * * * * * * * * * * * * * * * * * * * * * * * * * * //

10
(
    atmosphere
    {
        type            patch;
        nFaces          56;
        startFace       479962;
    }
    outlet
    {
        type            patch;
        nFaces          332;
        startFace       480018;
    }
    inlet
    {
        type            patch;
        nFaces          0;
        startFace       480350;
    }
    bottom
    {
        type            symmetryPlane;
        inGroups        1(symmetryPlane);
        nFaces          56;
        startFace       480350;
    }
    side
    {
        type            symmetryPlane;
        inGroups        1(symmetryPlane);
        nFaces          0;
        startFace       480406;
    }
    midPlane
    {
        type            symmetryPlane;
        inGroups        1(symmetryPlane);
        nFaces          12037;
        startFace       480406;
    }
    hull
    {
        type            wall;
        inGroups        1(wall);
        nFaces          0;
        startFace       492443;
    }
    procBoundary5to1
    {
        type            processor;
        inGroups        1(processor);
        nFaces          1776;
        startFace       492443;
        matchTolerance  0.0001;
        transform       unknown;
        myProcNo        5;
        neighbProcNo    1;
    }
    procBoundary5to2
    {
        type            processor;
        inGroups        1(processor);
        nFaces          12657;
        startFace       494219;
        matchTolerance  0.0001;
        transform       unknown;
        myProcNo        5;
        neighbProcNo    2;
    }
    procBoundary5to4
    {
        type            processor;
        inGroups        1(processor);
        nFaces          1593;
        startFace       506876;
        matchTolerance  0.0001;
        transform       unknown;
        myProcNo        5;
        neighbProcNo    4;
    }
)

// ************************************************************************* //
