/*--------------------------------*- C++ -*----------------------------------*\
| =========                 |                                                 |
| \\      /  F ield         | OpenFOAM: The Open Source CFD Toolbox           |
|  \\    /   O peration     | Version:  v2012                                 |
|   \\  /    A nd           | Website:  www.openfoam.com                      |
|    \\/     M anipulation  |                                                 |
\*---------------------------------------------------------------------------*/
FoamFile
{
    version     2.0;
    format      ascii;
    class       dictionary;
    object      fvSchemes;
}
// * * * * * * * * * * * * * * * * * * * * * * * * * * * * * * * * * * * * * //

ddtSchemes
{
    default         steadyState;
}

gradSchemes
{
    default         cellLimited Gauss linear 1;
    grad(U)         cellLimited Gauss linear 1;
    grad(nuTilda)   cellLimited Gauss linear 1;
    gradDConv       cellLimited Gauss linear 1;
    gradDaConv      cellLimited Gauss linear 1;
    gradUATC        cellLimited Gauss linear 1;
}

divSchemes
{
    default                 		Gauss linear;
    div(phi,U)              		bounded Gauss linearUpwindV grad(U);
    div(phi,nuTilda)        		bounded Gauss upwind;
    div(yPhi,yWall)                 	Gauss linearUpwind gradDConv;

    div(-phiMean,UaadjS1)        	bounded Gauss upwind;
    div(-phiMean,nuaTildaadjS1)  	bounded Gauss upwind;
    div(-phiMean,UaadjS2)        	bounded Gauss upwind;
    div(-phiMean,nuaTildaadjS2)  	bounded Gauss upwind;
    div(-yPhi,daadjS1)            	Gauss upwind;
    div(-yPhi,daadjS2)            	Gauss upwind;
}

laplacianSchemes
{
    default         Gauss linear limited 0.333;
}

interpolationSchemes
{
    default         linear;
}

snGradSchemes
{
    default         limited 0.333;
}

wallDist
{
    method advectionDiffusion;
    advectionDiffusionCoeffs
    {
        method    meshWave;
        tolerance 5.e-5;
        maxIter   500;
        epsilon   0.1;
    }
}


// ************************************************************************* //
