/*--------------------------------*- C++ -*----------------------------------*\
| =========                 |                                                 |
| \\      /  F ield         | OpenFOAM: The Open Source CFD Toolbox           |
|  \\    /   O peration     | Version:  v2012                                 |
|   \\  /    A nd           | Website:  www.openfoam.com                      |
|    \\/     M anipulation  |                                                 |
\*---------------------------------------------------------------------------*/
FoamFile
{
    version     2.0;
    format      ascii;
    class       dictionary;
    object      fvSolution;
}
// * * * * * * * * * * * * * * * * * * * * * * * * * * * * * * * * * * * * * //

solvers
{
    "p|paadjS1|paadjS2"
    {
        solver           PCG;
        preconditioner   DIC;
        tolerance       1e-7;
        relTol          0.01;
    }

    ma
    {
        solver           PCG;
        preconditioner   DIC;
        tolerance        1e-9;
        relTol           0.01;
    };

    Phi
    {
        $p;
    }

    "U|UaadjS1|UaadjS2|nuTilda|nuaTildaadjS1|nuaTildaadjS2|yWall|daadjS1|daadjS2"
    {
        solver          smoothSolver;
        smoother        GaussSeidel;
        tolerance       1e-8;
        relTol          0.1;
        nSweeps         1;
    }
}

potentialFlow
{
    nNonOrthogonalCorrectors 30;
}

relaxationFactors
{
    fields
    {
        "p.*"    0.3;
        "pa.*"   0.7;
    }
    equations
    {
        U         	0.70;
        UaadjS1        0.25;
        UaadjS2	0.25;
        nuTilda   	0.7;
        nuaTildaadjS1  0.2;
        nuaTildaadjS2  0.2;
        yWall     	0.7;
        daadjS1        0.5;
        daadjS2	0.5;
    }
}

cache
{
    grad(U);
}

// ************************************************************************* //
