/*--------------------------------*- C++ -*----------------------------------*\
| =========                 |                                                 |
| \\      /  F ield         | OpenFOAM: The Open Source CFD Toolbox           |
|  \\    /   O peration     | Version:  v2012                                 |
|   \\  /    A nd           | Website:  www.openfoam.com                      |
|    \\/     M anipulation  |                                                 |
\*---------------------------------------------------------------------------*/
FoamFile
{
    version     2.0;
    format      ascii;
    class       dictionary;
    object      dynamicMeshDict;
}
// * * * * * * * * * * * * * * * * * * * * * * * * * * * * * * * * * * * * * //

solver volumetricBSplinesMotionSolver;

volumetricBSplinesMotionSolverCoeffs
{
    box
    {
        type    cartesian;
        nCPsU   5;
        nCPsV   5;
        nCPsW   5;
        degreeU 3;
        degreeV 3;
        degreeW 3;

        controlPointsDefinition fromFile;

        confineUMovement false;
        confineVMovement false;
        confineWMovement false;
        confineBoundaryControlPoints false;

        confineUMinCPs ( (false false false) (false false false) );
        confineUMaxCPs ( (false false false) );
        confineVMinCPs ( (false false false) (false false false) );
        confineVMaxCPs ( (false false false) (false false false) );
        confineWMinCPs ( (false false false) );
        confineWMaxCPs ( (false false false) (false false false) );
    }
}

// ************************************************************************* //
