/*--------------------------------*- C++ -*----------------------------------*\
  =========                 |
  \\      /  F ield         | OpenFOAM: The Open Source CFD Toolbox
   \\    /   O peration     | Website:  https://openfoam.org
    \\  /    A nd           | Version:  8
     \\/     M anipulation  |
\*---------------------------------------------------------------------------*/
FoamFile
{
    version     2.0;
    format      ascii;
    class       dictionary;
    location    "system";
    object      topoSetDict;
}
// * * * * * * * * * * * * * * * * * * * * * * * * * * * * * * * * * * * * * //

actions
(
    {
        name    c1;
        type    cellSet;
        action  new;
        source  boxToCell;
        sourceInfo
        {
            box (-9 -2 -3) (5 6 3);
        }
    }
    {
        name    c2;
        type    cellSet;
        action  new;
        source  boxToCell;
        sourceInfo
        {
            box (-8 -1.8 -2.5) (3.5 4.5 2);
        }
    }
    {
        name    c3;
        type    cellSet;
        action  new;
        source  boxToCell;
        sourceInfo
        {
            box (-6 -1.5 -1) (2.5 3.5 1.5);
        }
    }
    {
        name    c4;
        type    cellSet;
        action  new;
        source  boxToCell;
        sourceInfo
        {
            box (-5.5 -1 -0.6) (1.5 3 1);
        }
    }
    {
        name    c5;
        type    cellSet;
        action  new;
        source  boxToCell;
        sourceInfo
        {
            box (-5 -0.6 -0.4) (1 2.8 0.8);
        }
    }
    {
        name    c6;
        type    cellSet;
        action  new;
        source  boxToCell;
        sourceInfo
        {
            box (-4.5 -0.55 -0.3) (0.5 2.5 0.5);
        }
    }
);

// ************************************************************************* //
