/*--------------------------------*- C++ -*----------------------------------*\
| =========                 |                                                 |
| \\      /  F ield         | OpenFOAM: The Open Source CFD Toolbox           |
|  \\    /   O peration     | Version:  v2012                                 |
|   \\  /    A nd           | Website:  www.openfoam.com                      |
|    \\/     M anipulation  |                                                 |
\*---------------------------------------------------------------------------*/
FoamFile
{
    version     2.0;
    format      binary;
    class       polyBoundaryMesh;
    arch        "LSB;label=32;scalar=64";
    location    "constant/polyMesh";
    object      boundary;
}
// * * * * * * * * * * * * * * * * * * * * * * * * * * * * * * * * * * * * * //

9
(
    atmosphere
    {
        type            patch;
        nFaces          57;
        startFace       1953602;
    }
    outlet
    {
        type            patch;
        nFaces          0;
        startFace       1953659;
    }
    inlet
    {
        type            patch;
        nFaces          0;
        startFace       1953659;
    }
    bottom
    {
        type            symmetryPlane;
        inGroups        1(symmetryPlane);
        nFaces          57;
        startFace       1953659;
    }
    side
    {
        type            symmetryPlane;
        inGroups        1(symmetryPlane);
        nFaces          624;
        startFace       1953716;
    }
    midPlane
    {
        type            symmetryPlane;
        inGroups        1(symmetryPlane);
        nFaces          9062;
        startFace       1954340;
    }
    hull
    {
        type            wall;
        inGroups        1(wall);
        nFaces          34615;
        startFace       1963402;
    }
    procBoundary2to1
    {
        type            processor;
        inGroups        1(processor);
        nFaces          14726;
        startFace       1998017;
        matchTolerance  0.0001;
        transform       unknown;
        myProcNo        2;
        neighbProcNo    1;
    }
    procBoundary2to3
    {
        type            processor;
        inGroups        1(processor);
        nFaces          13945;
        startFace       2012743;
        matchTolerance  0.0001;
        transform       unknown;
        myProcNo        2;
        neighbProcNo    3;
    }
)

// ************************************************************************* //
