/*--------------------------------*- C++ -*----------------------------------*\
| =========                 |                                                 |
| \\      /  F ield         | OpenFOAM: The Open Source CFD Toolbox           |
|  \\    /   O peration     | Version:  v2012                                 |
|   \\  /    A nd           | Website:  www.openfoam.com                      |
|    \\/     M anipulation  |                                                 |
\*---------------------------------------------------------------------------*/
FoamFile
{
    version     2.0;
    format      ascii;
    class       dictionary;
    location    "../constant/controlPoints";
    object      boxcpsBsplines0;
}
// * * * * * * * * * * * * * * * * * * * * * * * * * * * * * * * * * * * * * //

controlPoints   125 ( ( -2.55 -0.3183 -0.697829 ) ( -2.55 -0.286594 -0.579503 ) ( -2.55 -0.254889 -0.461177 ) ( -2.55 -0.223184 -0.342851 ) ( -2.55 -0.191478 -0.224525 ) ( -2.55 -0.245855 -0.71724 ) ( -2.55 -0.21415 -0.598914 ) ( -2.55 -0.182444 -0.480589 ) ( -2.55 -0.150739 -0.362263 ) ( -2.55 -0.119034 -0.243937 ) ( -2.55 -0.173411 -0.736652 ) ( -2.55 -0.141705 -0.618326 ) ( -2.55 -0.11 -0.5 ) ( -2.55 -0.0782947 -0.381674 ) ( -2.55 -0.0465893 -0.263348 ) ( -2.55 -0.100966 -0.756063 ) ( -2.55 -0.0692609 -0.637737 ) ( -2.55 -0.0375556 -0.519411 ) ( -2.55 -0.00585023 -0.401086 ) ( -2.55 0.0258551 -0.28276 ) ( -2.55 -0.0285218 -0.775475 ) ( -2.55 0.00318354 -0.657149 ) ( -2.55 0.0348889 -0.538823 ) ( -2.55 0.0665942 -0.420497 ) ( -2.55 0.0982995 -0.302171 ) ( -2.3 -0.3183 -0.697829 ) ( -2.3 -0.286594 -0.579503 ) ( -2.3 -0.254889 -0.461177 ) ( -2.3 -0.223184 -0.342851 ) ( -2.3 -0.191478 -0.224525 ) ( -2.3 -0.245855 -0.71724 ) ( -2.3 -0.21415 -0.598914 ) ( -2.3 -0.182444 -0.480589 ) ( -2.3 -0.150739 -0.362263 ) ( -2.3 -0.119034 -0.243937 ) ( -2.3 -0.173411 -0.736652 ) ( -2.3 -0.141705 -0.618326 ) ( -2.3 -0.11 -0.5 ) ( -2.3 -0.0782947 -0.381674 ) ( -2.3 -0.0465893 -0.263348 ) ( -2.3 -0.100966 -0.756063 ) ( -2.3 -0.0692609 -0.637737 ) ( -2.3 -0.0375556 -0.519411 ) ( -2.3 -0.00585023 -0.401086 ) ( -2.3 0.0258551 -0.28276 ) ( -2.3 -0.0285218 -0.775475 ) ( -2.3 0.00318354 -0.657149 ) ( -2.3 0.0348889 -0.538823 ) ( -2.3 0.0665942 -0.420497 ) ( -2.3 0.0982995 -0.302171 ) ( -2.05 -0.3183 -0.697829 ) ( -2.05 -0.286594 -0.579503 ) ( -2.05 -0.254889 -0.461177 ) ( -2.05 -0.223184 -0.342851 ) ( -2.05 -0.191478 -0.224525 ) ( -2.05 -0.245855 -0.71724 ) ( -2.05 -0.21415 -0.598914 ) ( -2.05 -0.182444 -0.480589 ) ( -2.05 -0.150739 -0.362263 ) ( -2.05 -0.119034 -0.243937 ) ( -2.05 -0.173411 -0.736652 ) ( -2.05 -0.141705 -0.618326 ) ( -2.05 -0.11 -0.5 ) ( -2.05 -0.0782947 -0.381674 ) ( -2.05 -0.0465893 -0.263348 ) ( -2.05 -0.100966 -0.756063 ) ( -2.05 -0.0692609 -0.637737 ) ( -2.05 -0.0375556 -0.519411 ) ( -2.05 -0.00585023 -0.401086 ) ( -2.05 0.0258551 -0.28276 ) ( -2.05 -0.0285218 -0.775475 ) ( -2.05 0.00318354 -0.657149 ) ( -2.05 0.0348889 -0.538823 ) ( -2.05 0.0665942 -0.420497 ) ( -2.05 0.0982995 -0.302171 ) ( -1.8 -0.3183 -0.697829 ) ( -1.8 -0.286594 -0.579503 ) ( -1.8 -0.254889 -0.461177 ) ( -1.8 -0.223184 -0.342851 ) ( -1.8 -0.191478 -0.224525 ) ( -1.8 -0.245855 -0.71724 ) ( -1.8 -0.21415 -0.598914 ) ( -1.8 -0.182444 -0.480589 ) ( -1.8 -0.150739 -0.362263 ) ( -1.8 -0.119034 -0.243937 ) ( -1.8 -0.173411 -0.736652 ) ( -1.8 -0.141705 -0.618326 ) ( -1.8 -0.11 -0.5 ) ( -1.8 -0.0782947 -0.381674 ) ( -1.8 -0.0465893 -0.263348 ) ( -1.8 -0.100966 -0.756063 ) ( -1.8 -0.0692609 -0.637737 ) ( -1.8 -0.0375556 -0.519411 ) ( -1.8 -0.00585023 -0.401086 ) ( -1.8 0.0258551 -0.28276 ) ( -1.8 -0.0285218 -0.775475 ) ( -1.8 0.00318354 -0.657149 ) ( -1.8 0.0348889 -0.538823 ) ( -1.8 0.0665942 -0.420497 ) ( -1.8 0.0982995 -0.302171 ) ( -1.55 -0.3183 -0.697829 ) ( -1.55 -0.286594 -0.579503 ) ( -1.55 -0.254889 -0.461177 ) ( -1.55 -0.223184 -0.342851 ) ( -1.55 -0.191478 -0.224525 ) ( -1.55 -0.245855 -0.71724 ) ( -1.55 -0.21415 -0.598914 ) ( -1.55 -0.182444 -0.480589 ) ( -1.55 -0.150739 -0.362263 ) ( -1.55 -0.119034 -0.243937 ) ( -1.55 -0.173411 -0.736652 ) ( -1.55 -0.141705 -0.618326 ) ( -1.55 -0.11 -0.5 ) ( -1.55 -0.0782947 -0.381674 ) ( -1.55 -0.0465893 -0.263348 ) ( -1.55 -0.100966 -0.756063 ) ( -1.55 -0.0692609 -0.637737 ) ( -1.55 -0.0375556 -0.519411 ) ( -1.55 -0.00585023 -0.401086 ) ( -1.55 0.0258551 -0.28276 ) ( -1.55 -0.0285218 -0.775475 ) ( -1.55 0.00318354 -0.657149 ) ( -1.55 0.0348889 -0.538823 ) ( -1.55 0.0665942 -0.420497 ) ( -1.55 0.0982995 -0.302171 ) );


// ************************************************************************* //
