/*--------------------------------*- C++ -*----------------------------------*\
| =========                 |                                                 |
| \\      /  F ield         | OpenFOAM: The Open Source CFD Toolbox           |
|  \\    /   O peration     | Version:  v2012                                 |
|   \\  /    A nd           | Website:  www.openfoam.com                      |
|    \\/     M anipulation  |                                                 |
\*---------------------------------------------------------------------------*/
FoamFile
{
    version     2.0;
    format      binary;
    class       polyBoundaryMesh;
    arch        "LSB;label=32;scalar=64";
    location    "constant/polyMesh";
    object      boundary;
}
// * * * * * * * * * * * * * * * * * * * * * * * * * * * * * * * * * * * * * //

8
(
    atmosphere
    {
        type            patch;
        nFaces          203;
        startFace       1958554;
    }
    outlet
    {
        type            patch;
        nFaces          0;
        startFace       1958757;
    }
    inlet
    {
        type            patch;
        nFaces          3952;
        startFace       1958757;
    }
    bottom
    {
        type            symmetryPlane;
        inGroups        1(symmetryPlane);
        nFaces          209;
        startFace       1962709;
    }
    side
    {
        type            symmetryPlane;
        inGroups        1(symmetryPlane);
        nFaces          2115;
        startFace       1962918;
    }
    midPlane
    {
        type            symmetryPlane;
        inGroups        1(symmetryPlane);
        nFaces          11859;
        startFace       1965033;
    }
    hull
    {
        type            wall;
        inGroups        1(wall);
        nFaces          22930;
        startFace       1976892;
    }
    procBoundary0to1
    {
        type            processor;
        inGroups        1(processor);
        nFaces          14684;
        startFace       1999822;
        matchTolerance  0.0001;
        transform       unknown;
        myProcNo        0;
        neighbProcNo    1;
    }
)

// ************************************************************************* //
