/*--------------------------------*- C++ -*----------------------------------*\
| =========                 |                                                 |
| \\      /  F ield         | OpenFOAM: The Open Source CFD Toolbox           |
|  \\    /   O peration     | Version:  v2012                                 |
|   \\  /    A nd           | Website:  www.openfoam.com                      |
|    \\/     M anipulation  |                                                 |
\*---------------------------------------------------------------------------*/
FoamFile
{
    version     2.0;
    format      binary;
    class       polyBoundaryMesh;
    arch        "LSB;label=32;scalar=64";
    location    "constant/polyMesh";
    object      boundary;
}
// * * * * * * * * * * * * * * * * * * * * * * * * * * * * * * * * * * * * * //

8
(
    frontAndBack
    {
        type            patch;
        nFaces          180;
        startFace       1071064;
    }
    inlet
    {
        type            patch;
        nFaces          380;
        startFace       1071244;
    }
    outlet
    {
        type            patch;
        nFaces          0;
        startFace       1071624;
    }
    lowerWall
    {
        type            patch;
        nFaces          180;
        startFace       1071624;
    }
    upperWall
    {
        type            patch;
        nFaces          5403;
        startFace       1071804;
    }
    hull
    {
        type            wall;
        inGroups        1(wall);
        nFaces          4365;
        startFace       1077207;
    }
    keel
    {
        type            wall;
        inGroups        1(wall);
        nFaces          3077;
        startFace       1081572;
    }
    procBoundary0to1
    {
        type            processor;
        inGroups        1(processor);
        nFaces          6053;
        startFace       1084649;
        matchTolerance  0.0001;
        transform       unknown;
        myProcNo        0;
        neighbProcNo    1;
    }
)

// ************************************************************************* //
