/*--------------------------------*- C++ -*----------------------------------*\
| =========                 |                                                 |
| \\      /  F ield         | OpenFOAM: The Open Source CFD Toolbox           |
|  \\    /   O peration     | Version:  v2012                                 |
|   \\  /    A nd           | Website:  www.openfoam.com                      |
|    \\/     M anipulation  |                                                 |
\*---------------------------------------------------------------------------*/
FoamFile
{
    version     2.0;
    format      binary;
    class       polyBoundaryMesh;
    arch        "LSB;label=32;scalar=64";
    location    "constant/polyMesh";
    object      boundary;
}
// * * * * * * * * * * * * * * * * * * * * * * * * * * * * * * * * * * * * * //

8
(
    frontAndBack
    {
        type            patch;
        nFaces          420;
        startFace       1070750;
    }
    inlet
    {
        type            patch;
        nFaces          0;
        startFace       1071170;
    }
    outlet
    {
        type            patch;
        nFaces          200;
        startFace       1071170;
    }
    lowerWall
    {
        type            patch;
        nFaces          420;
        startFace       1071370;
    }
    upperWall
    {
        type            patch;
        nFaces          7559;
        startFace       1071790;
    }
    hull
    {
        type            wall;
        inGroups        1(wall);
        nFaces          0;
        startFace       1079349;
    }
    keel
    {
        type            wall;
        inGroups        1(wall);
        nFaces          0;
        startFace       1079349;
    }
    procBoundary3to2
    {
        type            processor;
        inGroups        1(processor);
        nFaces          6199;
        startFace       1079349;
        matchTolerance  0.0001;
        transform       unknown;
        myProcNo        3;
        neighbProcNo    2;
    }
)

// ************************************************************************* //
