/*---------------------------------------------------------------------------*\
| =========                 |                                                 |
| \\      /  F ield         | OpenFOAM: The Open Source CFD Toolbox           |
|  \\    /   O peration     | Version:  1.3                                   |
|   \\  /    A nd           | Web:      http://www.openfoam.org               |
|    \\/     M anipulation  |                                                 |
\*---------------------------------------------------------------------------*/
FoamFile
{
    version     2.0;
    format      ascii;
    class       dictionary;
    location    "system";
    object      setFieldsDict;
}
// * * * * * * * * * * * * * * * * * * * * * * * * * * * * * * * * * * * * * //

#include "../data"

defaultFieldValues
(
    volScalarFieldValue alpha.water 0
    volVectorFieldValue U           ($airVelocity 0. 0.)
);

regions
(
    boxToCell
    {
        box (-10 -1 -1) (30 1 0.4);

        fieldValues
        (
            volScalarFieldValue alpha.water 1
            volVectorFieldValue U           ($seaVelocity 0. 0.)
        );
    }
);
